/*--------------------------------*- C++ -*----------------------------------*\
  =========                 |
  \\      /  F ield         | OpenFOAM: The Open Source CFD Toolbox
   \\    /   O peration     | Website:  https://openfoam.org
    \\  /    A nd           | Version:  7
     \\/     M anipulation  |
\*---------------------------------------------------------------------------*/
FoamFile
{
    version     2.0;
    format      ascii;
    class       polyBoundaryMesh;
    location    "constant/polyMesh";
    object      boundary;
}
// * * * * * * * * * * * * * * * * * * * * * * * * * * * * * * * * * * * * * //

5
(
    inlet
    {
        type            patch;
        nFaces          10;
        startFace       560;
    }
    outlet
    {
        type            patch;
        nFaces          10;
        startFace       570;
    }
    bottom
    {
        type            symmetryPlane;
        inGroups        List<word> 1(symmetryPlane);
        nFaces          30;
        startFace       580;
    }
    top
    {
        type            patch;
        nFaces          30;
        startFace       610;
    }
    front_and_back
    {
        type            empty;
        inGroups        List<word> 1(empty);
        nFaces          600;
        startFace       640;
    }
)

// ************************************************************************* //
